6
Properties=species:S:1:pos:R:3:gradient_habohr:R:3 energy_ha=-78.56500678870296 label=ethene_opt basis=ccpvtz xc=b3lyp pbc="F F F"
H        0.23781696      -0.59187524       1.39953665      -0.00000064      -0.00000927       0.00000145
C       -0.00123564       0.14773003       0.64550814      -0.00000635       0.00003662      -0.00003748
H       -0.24248028       1.14129235       1.00229259       0.00000195      -0.00001013       0.00001365
H       -0.23782745       0.59181056      -1.39959267      -0.00000312       0.00000533       0.00000707
C        0.00128705      -0.14771004      -0.64552428       0.00000883      -0.00002402       0.00001139
H        0.24252628      -1.14136030      -1.00207653      -0.00000067       0.00000147       0.00000393
6
Properties=species:S:1:pos:R:3:gradient_habohr:R:3 energy_ha=-78.52853063355666 label=A1+ basis=ccpvtz xc=b3lyp pbc="F F F"
H        0.27025753      -0.75894648       1.20925921       0.00685461      -0.03142892      -0.02209687
C        0.00000000       0.14488094       0.63120566       0.00031558      -0.00366167      -0.01887013
H       -0.27483508       1.20806039       0.75819409      -0.00688472       0.01811923      -0.03362038
H       -0.27025753       0.75894648      -1.20925921      -0.00685461       0.03142892       0.02209687
C        0.00000000      -0.14488094      -0.63120566      -0.00031558       0.00366167       0.01887013
H        0.27483508      -1.20806039      -0.75819409       0.00688472      -0.01811923       0.03362038
6
Properties=species:S:1:pos:R:3:gradient_habohr:R:3 energy_ha=-78.52511971632137 label=A1- basis=ccpvtz xc=b3lyp pbc="F F F"
H       -0.27025753      -0.75894648       1.20925921      -0.01026298      -0.02558966      -0.01961852
C        0.00000000       0.14488094       0.63120566       0.05292006      -0.00585064      -0.02842009
H       -0.27483508       1.20806039       0.75819409      -0.01024007       0.01393666      -0.02884178
H        0.27025753       0.75894648      -1.20925921       0.01026298       0.02558966       0.01961852
C        0.00000000      -0.14488094      -0.63120566      -0.05292006       0.00585064       0.02842009
H        0.27483508      -1.20806039      -0.75819409       0.01024007      -0.01393666       0.02884178
